# STR package for  MODFLOW-2005, generated by Flopy.
75 1 0 0 1 86400.0 53 53 
        51         1         1  # stress period 1
1 1 26 1 1 100.0 8.004820823669434 1.0 7.0 8.0 
1 2 26 1 2 100.0 8.004820823669434 1.0 7.0 8.0 
1 3 26 1 3 100.0 8.004820823669434 1.0 7.0 8.0 
1 4 26 1 4 100.0 8.004820823669434 1.0 7.0 8.0 
1 5 26 1 5 100.0 8.004820823669434 1.0 7.0 8.0 
1 6 26 1 6 100.0 8.004820823669434 1.0 7.0 8.0 
1 7 26 1 7 100.0 8.004820823669434 1.0 7.0 8.0 
1 8 26 1 8 100.0 8.004820823669434 1.0 7.0 8.0 
1 9 26 1 9 100.0 8.004820823669434 1.0 7.0 8.0 
1 10 26 1 10 100.0 8.004820823669434 1.0 7.0 8.0 
1 11 26 1 11 100.0 8.004820823669434 1.0 7.0 8.0 
1 12 26 1 12 100.0 8.004820823669434 1.0 7.0 8.0 
1 13 26 1 13 100.0 8.004820823669434 1.0 7.0 8.0 
1 14 26 1 14 100.0 8.004820823669434 1.0 7.0 8.0 
1 15 26 1 15 100.0 8.004820823669434 1.0 7.0 8.0 
1 16 26 1 16 100.0 8.004820823669434 1.0 7.0 8.0 
1 17 26 1 17 100.0 8.004820823669434 1.0 7.0 8.0 
1 18 26 1 18 100.0 8.004820823669434 1.0 7.0 8.0 
1 19 26 1 19 100.0 8.004820823669434 1.0 7.0 8.0 
1 20 26 1 20 100.0 8.004820823669434 1.0 7.0 8.0 
1 21 26 1 21 100.0 8.004820823669434 1.0 7.0 8.0 
1 22 26 1 22 100.0 8.004820823669434 1.0 7.0 8.0 
1 23 26 1 23 100.0 8.004820823669434 1.0 7.0 8.0 
1 24 26 1 24 100.0 8.004820823669434 1.0 7.0 8.0 
1 25 26 1 25 100.0 8.004820823669434 1.0 7.0 8.0 
1 26 26 1 26 100.0 8.004820823669434 1.0 7.0 8.0 
1 27 26 1 27 100.0 8.004820823669434 1.0 7.0 8.0 
1 28 26 1 28 100.0 8.004820823669434 1.0 7.0 8.0 
1 29 26 1 29 100.0 8.004820823669434 1.0 7.0 8.0 
1 30 26 1 30 100.0 8.004820823669434 1.0 7.0 8.0 
1 31 26 1 31 100.0 8.004820823669434 1.0 7.0 8.0 
1 32 26 1 32 100.0 8.004820823669434 1.0 7.0 8.0 
1 33 26 1 33 100.0 8.004820823669434 1.0 7.0 8.0 
1 34 26 1 34 100.0 8.004820823669434 1.0 7.0 8.0 
1 35 26 1 35 100.0 8.004820823669434 1.0 7.0 8.0 
1 36 26 1 36 100.0 8.004820823669434 1.0 7.0 8.0 
1 37 26 1 37 100.0 8.004820823669434 1.0 7.0 8.0 
1 38 26 1 38 100.0 8.004820823669434 1.0 7.0 8.0 
1 39 26 1 39 100.0 8.004820823669434 1.0 7.0 8.0 
1 40 26 1 40 100.0 8.004820823669434 1.0 7.0 8.0 
1 41 26 1 41 100.0 8.004820823669434 1.0 7.0 8.0 
1 42 26 1 42 100.0 8.004820823669434 1.0 7.0 8.0 
1 43 26 1 43 100.0 8.004820823669434 1.0 7.0 8.0 
1 44 26 1 44 100.0 8.004820823669434 1.0 7.0 8.0 
1 45 26 1 45 100.0 8.004820823669434 1.0 7.0 8.0 
1 46 26 1 46 100.0 8.004820823669434 1.0 7.0 8.0 
1 47 26 1 47 100.0 8.004820823669434 1.0 7.0 8.0 
1 48 26 1 48 100.0 8.004820823669434 1.0 7.0 8.0 
1 49 26 1 49 100.0 8.004820823669434 1.0 7.0 8.0 
1 50 26 1 50 100.0 8.004820823669434 1.0 7.0 8.0 
1 51 26 1 51 100.0 8.004820823669434 1.0 7.0 8.0 
20.0 9.999999747378752e-05 0.023770000785589218 
20.0 9.999999747378752e-05 0.023770000785589218 
20.0 9.999999747378752e-05 0.023770000785589218 
20.0 9.999999747378752e-05 0.023770000785589218 
20.0 9.999999747378752e-05 0.023770000785589218 
20.0 9.999999747378752e-05 0.023770000785589218 
20.0 9.999999747378752e-05 0.023770000785589218 
20.0 9.999999747378752e-05 0.023770000785589218 
20.0 9.999999747378752e-05 0.023770000785589218 
20.0 9.999999747378752e-05 0.023770000785589218 
20.0 9.999999747378752e-05 0.023770000785589218 
20.0 9.999999747378752e-05 0.023770000785589218 
20.0 9.999999747378752e-05 0.023770000785589218 
20.0 9.999999747378752e-05 0.023770000785589218 
20.0 9.999999747378752e-05 0.023770000785589218 
20.0 9.999999747378752e-05 0.023770000785589218 
20.0 9.999999747378752e-05 0.023770000785589218 
20.0 9.999999747378752e-05 0.023770000785589218 
20.0 9.999999747378752e-05 0.023770000785589218 
20.0 9.999999747378752e-05 0.023770000785589218 
20.0 9.999999747378752e-05 0.023770000785589218 
20.0 9.999999747378752e-05 0.023770000785589218 
20.0 9.999999747378752e-05 0.023770000785589218 
20.0 9.999999747378752e-05 0.023770000785589218 
20.0 9.999999747378752e-05 0.023770000785589218 
20.0 9.999999747378752e-05 0.023770000785589218 
20.0 9.999999747378752e-05 0.023770000785589218 
20.0 9.999999747378752e-05 0.023770000785589218 
20.0 9.999999747378752e-05 0.023770000785589218 
20.0 9.999999747378752e-05 0.023770000785589218 
20.0 9.999999747378752e-05 0.023770000785589218 
20.0 9.999999747378752e-05 0.023770000785589218 
20.0 9.999999747378752e-05 0.023770000785589218 
20.0 9.999999747378752e-05 0.023770000785589218 
20.0 9.999999747378752e-05 0.023770000785589218 
20.0 9.999999747378752e-05 0.023770000785589218 
20.0 9.999999747378752e-05 0.023770000785589218 
20.0 9.999999747378752e-05 0.023770000785589218 
20.0 9.999999747378752e-05 0.023770000785589218 
20.0 9.999999747378752e-05 0.023770000785589218 
20.0 9.999999747378752e-05 0.023770000785589218 
20.0 9.999999747378752e-05 0.023770000785589218 
20.0 9.999999747378752e-05 0.023770000785589218 
20.0 9.999999747378752e-05 0.023770000785589218 
20.0 9.999999747378752e-05 0.023770000785589218 
20.0 9.999999747378752e-05 0.023770000785589218 
20.0 9.999999747378752e-05 0.023770000785589218 
20.0 9.999999747378752e-05 0.023770000785589218 
20.0 9.999999747378752e-05 0.023770000785589218 
20.0 9.999999747378752e-05 0.023770000785589218 
20.0 9.999999747378752e-05 0.023770000785589218 
